%chk=C:\Users\William\Documents\chem3DFile\e-donor\D1.chk
# opt hf/6-311g geom=connectivity

Title Card Required
<name>thieno[3,2-b]thiophene<\name>
<s>symmetry<\s>
<l>-0.82300000,-2.96200000,0.70700000<\l>
<r>0.82300000,2.96200000,-0.70700000<\r>

0 1
 C                  0.61900000   -0.21700000   -0.12000000
 C                 -0.61900000    0.21700000    0.12000000
 C                 -0.66700000    1.53400000   -0.08900000
 C                  0.56300000    1.92200000   -0.46600000
 S                  1.55300000    0.83000000   -0.53300000
 C                  0.66700000   -1.53400000    0.08900000
 C                 -0.56300000   -1.92200000    0.46600000
 H                 -1.54400000    2.18600000    0.02400000
 H                  0.82300000    2.96200000   -0.70700000
 S                 -1.55300000   -0.83000000    0.53300000
 H                  1.54400000   -2.18600000   -0.02400000
 H                 -0.82300000   -2.96200000    0.70700000

 1 2 2.0 5 2.0 6 2.0
 2 3 2.0 10 2.0
 3 4 2.0 8 1.0
 4 5 2.0 9 1.0
 5
 6 7 2.0 11 1.0
 7 10 2.0 12 1.0
 8
 9
 10
 11
 12

