%chk=C:\Users\William\Documents\chem3DFile\e-donor\D1.chk
# hf/3-21g

Title Card Required
<name>4,4,9,9-tetra-p-tolyl-4,9-dihydro-s-indaceno[1,2-b:5,6-b']dithiophene<\name>
<s>symmetry<\s>
<l>1.455,2.451,-0.474<\l>
<r>-9.205,-2.452,0.443<\r>

0 1
C	-5.034	0.678	0.004
C	-5.009	-0.666	0.104
C	-3.864	-1.363	0.096
C	-2.717	-0.677	-0.020
C	-2.741	0.668	-0.122
C	-3.886	1.365	-0.113
C	-6.434	1.281	0.038
C	-7.100	-0.062	0.167
C	-6.269	-1.104	0.202
C	-1.316	-1.280	-0.049
C	-0.651	0.062	-0.186
C	-1.481	1.105	-0.222
C	0.612	0.482	-0.282
C	0.560	1.820	-0.381
S	-0.799	2.391	-0.356
C	-8.362	-0.482	0.260
C	-8.310	-1.820	0.355
S	-6.951	-2.390	0.331
C	-1.062	-1.985	1.271
C	-0.972	-2.091	-1.283
C	-1.346	-3.292	1.411
C	-1.160	-3.928	2.578
C	-0.701	-3.271	3.656
C	-0.440	-1.959	3.530
C	-0.628	-1.326	2.361
C	-1.758	-2.116	-2.375
C	-1.415	-2.823	-3.463
C	-0.264	-3.515	-3.506
C	0.536	-3.474	-2.427
C	0.191	-2.767	-1.341
C	-6.691	1.997	-1.275
C	-6.777	2.082	1.280
C	-6.409	3.307	-1.404
C	-6.598	3.953	-2.564
C	-7.058	3.305	-3.648
C	-7.316	1.991	-3.533
C	-7.126	1.348	-2.370
C	-7.940	2.755	1.346
C	-8.284	3.451	2.440
C	-7.479	3.488	3.515
C	-6.330	2.793	3.466
C	-5.989	2.097	2.370
C	-7.271	4.036	-4.951
C	-7.867	4.260	4.754
C	-0.491	-3.990	4.968
C	0.116	-4.315	-4.729
H	-3.860	-2.461	0.175
H	-3.890	2.462	-0.192
H	1.512	-0.145	-0.279
H	1.455	2.451	-0.474
H	-9.262	0.145	0.256
H	-9.205	-2.452	0.443
H	-1.743	-3.867	0.558
H	-1.398	-5.002	2.653
H	-0.078	-1.386	4.400
H	-0.419	-0.245	2.319
H	-2.703	-1.552	-2.402
H	-2.087	-2.826	-4.338
H	1.494	-4.021	-2.433
H	0.882	-2.745	-0.482
H	-6.012	3.873	-0.545
H	-6.362	5.028	-2.629
H	-7.679	1.426	-4.407
H	-7.333	0.266	-2.337
H	-8.633	2.739	0.489
H	-9.243	3.995	2.453
H	-5.657	2.788	4.339
H	-5.043	1.533	2.391
H	-7.679	5.058	-4.779
H	-6.302	4.132	-5.494
H	-7.989	3.507	-5.617
H	-8.972	4.341	4.863
H	-7.486	3.770	5.679
H	-7.445	5.290	4.705
H	-0.090	-5.016	4.806
H	0.233	-3.458	5.626
H	-1.459	-4.072	5.513
H	-0.781	-4.723	-5.247
H	0.671	-3.668	-5.446
H	0.763	-5.183	-4.471