%chk=C:\Users\William\Documents\chem3DFile\e-donor\D1.chk
# hf/3-21g

Title Card Required
<name>spiro[cyclopenta[2,1-b:3,4-b']dithiophene-4,9'-fluorene]<\name>
<s>symmetry<\s>
<l>-9.012,3.552,-9.199<\l>
<r>-7.841,-0.921,-2.901<\r>

0 1
C	-7.236	2.592	-6.723
C	-8.306	1.805	-6.556
C	-8.105	1.038	-5.476
C	-6.908	1.338	-4.958
C	-6.162	2.415	-5.690
C	-5.891	3.591	-4.904
C	-4.580	3.747	-5.034
C	-3.614	3.071	-5.692
C	-4.698	2.214	-6.103
C	-7.397	3.375	-7.789
C	-8.597	3.065	-8.305
S	-9.333	2.015	-7.576
S	-8.804	-0.008	-4.728
C	-7.745	-0.193	-3.718
C	-6.669	0.596	-3.877
C	-2.782	2.286	-6.403
C	-2.651	1.212	-7.191
C	-3.742	0.525	-7.481
C	-4.776	1.101	-6.881
C	-6.730	4.361	-4.203
C	-6.207	5.410	-3.553
C	-4.886	5.630	-3.639
C	-4.097	4.816	-4.362
H	-6.686	4.123	-8.163
H	-9.012	3.552	-9.199
H	-7.841	-0.921	-2.901
H	-5.772	0.631	-3.247
H	-1.778	2.745	-6.260
H	-1.674	0.895	-7.596
H	-3.779	-0.373	-8.114
H	-5.727	0.576	-7.080
H	-7.808	4.139	-4.163
H	-6.852	6.078	-2.960
H	-4.445	6.491	-3.108
H	-3.017	5.052	-4.392