%chk=C:\Users\William\Documents\chem3DFile\e-donor\D1.chk
# hf/3-21g

Title Card Required
<name>4-methyl-4H-dithieno[3,2-b:2',3'-d]pyrrole<\name>
<s>symmetry<\s>
<l>-1.927,-2.684,-0.098<\l>
<r>-9.279,-0.038,0.147<\r>

0 1
C	-6.110	0.313	0.033
C	-6.192	-1.024	0.044
C	-4.932	-1.475	0.002
C	-4.145	-0.390	-0.032
N	-4.886	0.637	-0.012
S	-4.183	-2.731	-0.018
C	-2.853	-2.092	-0.069
C	-2.863	-0.747	-0.076
C	-7.324	0.858	0.073
C	-8.188	-0.172	0.110
S	-7.569	-1.513	0.095
C	-4.412	2.022	-0.036
H	-1.927	-2.684	-0.098
H	-1.991	-0.082	-0.110
H	-7.567	1.928	0.076
H	-9.279	-0.038	0.147
H	-3.301	2.080	-0.076
H	-4.813	2.550	-0.931
H	-4.749	2.561	0.878