%chk=C:\Users\William\Documents\chem3DFile\e-donor\D1.chk
# hf/3-21g

Title Card Required
<name>9-methyl-9H-carbazole<\name>
<s>symmetry<\s>
<l>-2.551,2.722,0.115<\l>
<r>-9.336,-2.692,-0.101<\r>

0 1
C	-5.366	0.988	0.261
C	-4.963	-0.121	-0.385
C	-6.007	-0.962	-0.422
C	-7.024	-0.347	0.203
N	-6.580	0.783	0.574
C	-4.517	2.008	0.446
C	-3.264	1.893	-0.027
C	-2.867	0.782	-0.673
C	-3.716	-0.242	-0.859
C	-6.148	-2.189	-0.940
C	-7.343	-2.791	-0.816
C	-8.364	-2.178	-0.191
C	-8.216	-0.946	0.327
C	-7.429	1.744	1.302
H	-4.815	2.929	0.970
H	-2.551	2.722	0.115
H	-1.834	0.710	-1.053
H	-3.390	-1.152	-1.388
H	-5.315	-2.694	-1.452
H	-7.488	-3.802	-1.233
H	-9.336	-2.692	-0.101
H	-9.058	-0.452	0.837
H	-6.904	2.687	1.561
H	-8.312	2.024	0.684
H	-7.784	1.298	2.259