%chk=C:\Users\William\Documents\chem3DFile\e-donor\D1.chk
# hf/3-21g

Title Card Required
<name>(4aS,12bS)-5,11-dimethyl-4a,5,11,12b-tetrahydroindolo[3,2-b]carbazole<\name>
<s>asymmetry<\s>
<l>5.785,0.234,-2.617<\l>
<r>-5.748,0.253,0.012<\r>

0 1
C	1.088	-0.931	-0.165
C	1.266	0.396	-0.296
C	0.362	1.281	0.145
C	-0.749	0.803	0.732
C	-0.926	-0.524	0.855
C	-0.018	-1.411	0.418
N	2.117	-1.473	-0.678
C	2.961	-0.641	-1.137
C	2.446	0.578	-0.909
N	-1.725	1.452	1.226
C	-2.750	0.546	1.795
C	-2.227	-0.875	1.518
C	4.147	-0.785	-1.743
C	4.806	0.325	-2.116
C	4.289	1.546	-1.886
C	3.099	1.687	-1.278
C	-4.100	0.827	1.195
C	-4.767	-0.043	0.424
C	2.346	-2.926	-0.754
C	-1.736	2.925	1.224
C	-4.282	-1.258	0.133
C	-3.107	-1.689	0.612
H	0.541	2.359	0.022
H	-0.201	-2.488	0.543
H	-2.790	0.742	2.894
H	-2.040	-1.431	2.467
H	4.578	-1.780	-1.935
H	5.785	0.234	-2.617
H	4.849	2.443	-2.201
H	2.680	2.688	-1.092
H	-4.550	1.813	1.400
H	-5.748	0.253	0.012
H	1.517	-3.526	-0.323
H	2.458	-3.245	-1.815
H	3.270	-3.201	-0.195
H	-2.609	3.301	1.803
H	-1.825	3.317	0.185
H	-0.827	3.339	1.715
H	-4.871	-1.927	-0.518
H	-2.757	-2.700	0.342