%chk=C:\Users\William\Documents\chem3DFile\e-donor\D1.chk
# hf/3-21g

Title Card Required
<name>4,8-bis(5-methylthiophen-2-yl)benzo[1,2-b:4,5-b']dithiophene<\name>
<s>symmetry<\s>
<l>3.861,1.930,0.331<\l>
<r>-3.862,-1.928,-0.326<\r>

0 1
C	0.731	1.076	-0.020
C	1.239	-0.084	0.457
C	0.538	-1.247	0.463
C	-0.731	-1.075	0.022
C	-1.240	0.085	-0.455
C	-0.538	1.248	-0.461
C	1.747	1.948	-0.137
C	2.880	1.438	0.344
S	2.653	0.093	0.844
C	-1.748	-1.948	0.140
C	-2.880	-1.437	-0.341
S	-2.653	-0.093	-0.841
C	1.023	-2.478	0.795
C	0.566	-3.657	0.323
C	1.269	-4.707	0.757
C	2.270	-4.258	1.516
S	2.246	-2.795	1.563
C	3.309	-5.115	2.185
C	-1.023	2.478	-0.795
C	-0.567	3.657	-0.323
C	-1.269	4.707	-0.758
C	-2.269	4.257	-1.518
S	-2.245	2.794	-1.565
C	-3.307	5.113	-2.189
H	1.760	2.931	-0.623
H	3.861	1.930	0.331
H	-1.760	-2.930	0.627
H	-3.862	-1.928	-0.326
H	-0.254	-3.826	-0.386
H	1.072	-5.758	0.508
H	3.133	-6.195	1.982
H	4.331	-4.870	1.815
H	3.289	-4.976	3.290
H	0.252	3.827	0.387
H	-1.073	5.758	-0.509
H	-3.131	6.194	-1.988
H	-3.286	4.974	-3.295
H	-4.330	4.869	-1.821