%chk=C:\Users\William\Documents\chem3DFile\e-donor\D1.chk
# hf/3-21g

Title Card Required
<name><\name>
<s>symmetry<\s>
<l>-5.524,1.996,-0.686<\l>
<r>5.522,-1.996,0.705<\r>

0 1
C	-1.146	0.645	0.024
C	-1.102	-0.689	0.277
C	0.048	-1.408	0.201
C	1.147	-0.645	-0.015
C	1.103	0.689	-0.268
C	-0.047	1.408	-0.195
C	-0.122	2.767	-0.226
C	0.123	-2.767	0.227
C	-2.443	0.972	-0.147
C	-3.222	-0.083	0.090
S	-2.457	-1.251	0.472
C	2.444	-0.972	0.158
C	3.223	0.083	-0.077
S	2.459	1.251	-0.461
S	-3.268	2.111	-0.580
C	-4.585	1.470	-0.462
C	-4.517	0.188	-0.078
S	3.267	-2.111	0.593
C	4.584	-1.470	0.479
C	4.517	-0.188	0.094
C	-0.964	3.460	0.568
C	-0.799	4.781	0.469
C	0.221	5.015	-0.360
S	0.814	3.752	-0.806
C	0.966	-3.456	-0.568
C	0.801	-4.778	-0.478
C	-0.221	-5.016	0.347
S	-0.814	-3.755	0.800
C	0.745	6.375	-0.730
C	-0.748	-6.378	0.706
H	-5.524	1.996	-0.686
H	-5.363	-0.497	0.064
H	5.522	-1.996	0.705
H	5.364	0.496	-0.045
H	-1.695	3.043	1.274
H	-1.385	5.543	1.001
H	1.699	-3.036	-1.272
H	1.387	-5.536	-1.014
H	0.155	7.182	-0.241
H	1.805	6.499	-0.410
H	0.685	6.540	-1.830
H	-0.157	-7.183	0.213
H	-0.692	-6.550	1.805
H	-1.807	-6.499	0.382