%chk=C:\Users\William\Documents\chem3DFile\e-donor\D1.chk
# hf/3-21g 

Title Card Required
<name><\name>
<s>symmetry<\s>
<l>4.672,2.404,2.605<\l>
<r>-2.278,-2.956,-4.524<\r>

0 1
S	1.965	-0.454	-1.574
C	1.854	0.233	-0.279
C	0.617	0.267	0.253
C	-0.201	-0.364	-0.586
C	0.534	-0.785	-1.633
C	2.647	0.875	0.588
C	1.862	1.266	1.600
N	0.678	0.886	1.357
C	-1.522	-1.345	-1.872
N	-1.403	-0.719	-0.776
S	4.047	1.261	0.760
C	3.842	1.931	2.060
C	-0.318	-1.413	-2.454
C	-2.437	-1.950	-2.628
C	-1.783	-2.407	-3.710
S	-0.335	-2.119	-3.735
C	2.578	1.918	2.515
C	-2.517	-0.453	0.134
C	-0.456	1.140	2.248
H	4.672	2.404	2.605
H	-3.508	-2.057	-2.416
H	-2.278	-2.956	-4.524
H	2.214	2.357	3.452
H	-2.325	-0.915	1.128
H	-2.670	0.643	0.250
H	-3.474	-0.879	-0.243
H	-0.156	1.717	3.151
H	-1.235	1.737	1.724
H	-0.892	0.180	2.604