%chk=C:\Users\William\Documents\chem3DFile\e-donor\D1.chk
# hf/3-21g 

Title Card Required
<name>5,10-di-p-tolylnaphtho[1,2-b:5,6-b']dithiophene<\name>
<s>symmetry<\s>
<l>3.333,-3.720,0.696<\l>
<r>-3.331,3.716,-0.691<\r>

0 1
C	0.029	0.654	-0.152
C	-0.026	-0.658	0.159
C	1.145	-1.300	0.354
C	2.328	-0.664	0.260
C	2.421	0.656	-0.004
C	1.233	1.260	-0.226
C	-1.142	1.296	-0.347
C	-2.325	0.659	-0.254
C	-2.418	-0.660	0.010
C	-1.230	-1.264	0.232
S	1.306	-2.732	0.667
C	2.761	-2.788	0.595
C	3.297	-1.587	0.363
S	-1.303	2.728	-0.661
C	-2.759	2.784	-0.590
C	-3.294	1.582	-0.357
C	3.575	1.373	-0.033
C	-3.572	-1.377	0.038
C	-3.718	-2.496	0.781
C	-4.854	-3.211	0.807
C	-5.915	-2.854	0.067
C	-5.786	-1.762	-0.701
C	-4.645	-1.053	-0.713
C	3.720	2.492	-0.776
C	4.857	3.205	-0.801
C	5.918	2.848	-0.063
C	5.790	1.756	0.706
C	4.649	1.049	0.718
C	-7.200	-3.645	0.076
C	7.191	3.660	-0.095
H	1.236	2.343	-0.411
H	-1.234	-2.348	0.417
H	3.333	-3.720	0.696
H	4.378	-1.457	0.235
H	-3.331	3.716	-0.691
H	-4.376	1.452	-0.229
H	-2.925	-2.858	1.455
H	-4.918	-4.102	1.454
H	-6.623	-1.460	-1.353
H	-4.615	-0.228	-1.441
H	2.927	2.856	-1.449
H	4.926	4.098	-1.446
H	6.624	1.449	1.359
H	4.618	0.224	1.445
H	-7.211	-4.433	0.862
H	-8.070	-2.975	0.267
H	-7.349	-4.144	-0.909
H	7.528	3.818	-1.145
H	7.021	4.655	0.375
H	8.026	3.164	0.448