%chk=C:\Users\William\Documents\chem3DFile\e-donor\D1.chk
# hf/3-21g

Title Card Required
<name>benzo[c][1,2,5]thiadiazole<\name>
<s>symmetry<\s>
<l>-9.344,-0.767,-0.459<\l>
<r>-4.637,0.200,0.548<\r>

0 1
C	-8.288	-0.547	-0.234
C	-7.441	-1.541	0.082
C	-6.153	-1.276	0.357
C	-5.695	-0.014	0.321
C	-6.539	0.980	0.006
C	-7.831	0.714	-0.270
N	-6.224	2.204	-0.060
S	-7.579	3.138	-0.489
N	-8.531	1.730	-0.553
H	-9.344	-0.767	-0.459
H	-7.806	-2.581	0.114
H	-5.467	-2.101	0.615
H	-4.637	0.200	0.548
