%chk=C:\Users\William\Documents\chem3DFile\e-donor\D1.chk
# hf/3-21g

Title Card Required
<name>naphtho[1,2-c:5,6-c']bis([1,2,5]thiadiazole)<\name>
<s>symmetry<\s>
<l>-9.428,1.311,-0.443<\l>
<r>-2.953,-1.317,0.471<\r>

0 1
C	-8.494	0.735	-0.338
C	-8.490	-0.592	-0.513
C	-7.344	-1.292	-0.382
C	-6.188	-0.673	-0.075
C	-6.193	0.668	0.102
C	-7.344	1.355	-0.032
C	-5.037	-1.361	0.059
C	-3.888	-0.740	0.365
C	-3.892	0.587	0.539
C	-5.037	1.287	0.409
N	-9.515	-1.275	-0.803
S	-9.106	-2.920	-0.941
N	-7.490	-2.536	-0.575
N	-2.866	1.270	0.829
S	-3.275	2.915	0.966
N	-4.891	2.531	0.601
H	-9.428	1.311	-0.443
H	-7.377	2.449	0.106
H	-5.004	-2.454	-0.079
H	-2.953	-1.317	0.471
