%chk=C:\Users\William\Documents\chem3DFile\e-donor\D1.chk
# hf/3-21g

Title Card Required
<name>(E)-1,1'-dimethyl-[3,3'-biindolinylidene]-2,2'-dione<\name>
<s>symmetry<\s>
<l>-9.679,-2.348,-0.640<\l>
<r>0.464,1.990,1.706<\r>

0 1
C	-8.611	-0.526	-0.447
C	-8.694	-1.862	-0.547
C	-7.578	-2.605	-0.483
C	-6.370	-2.030	-0.353
C	-6.257	-0.691	-0.316
C	-7.397	0.026	-0.319
C	-2.828	1.737	1.223
C	-2.875	0.653	0.431
C	-1.713	0.022	0.177
C	-0.524	0.476	0.597
C	-0.497	1.597	1.333
C	-1.646	2.211	1.655
C	-5.214	0.161	-0.179
C	-5.798	1.393	-0.098
N	-7.048	1.234	-0.178
C	-3.881	-0.055	-0.135
C	-3.252	-1.119	-0.720
N	-2.015	-1.009	-0.492
O	-5.261	2.477	-0.061
O	-3.731	-1.978	-1.424
C	-8.021	2.339	-0.126
C	-1.006	-1.973	-0.962
H	-9.528	0.084	-0.458
H	-9.679	-2.348	-0.640
H	-7.660	-3.705	-0.508
H	-5.513	-2.704	-0.226
H	-3.729	2.244	1.594
H	0.414	-0.052	0.366
H	0.464	1.990	1.706
H	-1.619	3.100	2.308
H	-7.572	3.319	0.148
H	-8.514	2.463	-1.118
H	-8.801	2.137	0.642
H	-1.440	-2.896	-1.405
H	-0.358	-1.503	-1.737
H	-0.367	-2.314	-0.116
