%chk=C:\Users\William\Documents\chem3DFile\e-donor\D1.chk
# hf/3-21g 

Title Card Required
<name>3-methyl-5-methylenethiazolidine-2,4-dione<\name>
<l>-5.187,0.461,3.293<\l>

0 1
N	-7.214	-0.298	-0.542
C	-5.993	-0.377	0.111
C	-6.128	0.071	1.400
S	-7.487	0.513	1.793
C	-8.258	0.175	0.215
C	-5.092	0.104	2.254
O	-9.407	0.316	-0.120
O	-4.986	-0.791	-0.421
C	-7.372	-0.716	-1.927
H	-4.083	-0.225	1.962
H	-5.187	0.461	3.293
H	-8.372	-0.455	-2.339
H	-6.614	-0.218	-2.573
H	-7.245	-1.820	-2.007
