%chk=C:\Users\William\Documents\chem3DFile\e-donor\D1.chk
# hf/3-21g 

Title Card Required
<name>2-methylene-1H-indene-1,3(2H)-dione<\name>
<l>-2.532,-1.502,-0.559<\l>

0 1
C	-8.504	0.779	0.318
C	-8.129	1.272	-0.878
C	-6.918	0.997	-1.394
C	-6.105	0.217	-0.671
C	-6.477	-0.271	0.515
C	-7.681	-0.004	1.037
C	-4.850	-0.199	-0.969
C	-4.491	-0.962	0.102
C	-5.480	-1.025	1.037
O	-5.480	-1.615	2.096
O	-4.207	0.056	-1.963
C	-3.306	-1.577	0.220
H	-9.504	1.022	0.716
H	-8.826	1.911	-1.445
H	-6.614	1.402	-2.373
H	-7.990	-0.405	2.015
H	-3.053	-2.186	1.102
H	-2.532	-1.502	-0.559
