%chk=C:\Users\William\Documents\chem3DFile\e-donor\D1.chk
# hf/3-21g 

Title Card Required
<name>benzofuran<\name>
<l>-3.875,0.767,-2.063<\l>

0 1
C	-8.393	0.417	0.693
C	-7.901	-0.722	1.215
C	-6.688	-1.178	0.859
C	-5.997	-0.456	-0.030
C	-6.478	0.678	-0.554
C	-7.687	1.134	-0.200
C	-4.793	-0.610	-0.591
C	-4.687	0.457	-1.395
O	-5.683	1.182	-1.347
H	-9.392	0.771	1.002
H	-8.501	-1.291	1.946
H	-6.276	-2.109	1.279
H	-8.087	2.067	-0.628
H	-4.065	-1.414	-0.435
H	-3.875	0.767	-2.063
