%chk=C:\Users\William\Documents\chem3DFile\e-donor\D1.chk
# hf/3-21g 

Title Card Required
<name>5-methyl-2,2'-bithiophene<\name>
<l>-9.058,-2.125,-0.918<\l>

0 1
C	-2.830	-0.193	-0.724
C	-2.980	0.764	0.199
S	-4.375	0.863	0.647
C	-4.965	-0.202	-0.186
C	-4.014	-0.767	-0.951
C	-6.275	-0.531	-0.155
C	-7.224	0.036	0.611
C	-8.412	-0.535	0.387
C	-8.250	-1.488	-0.535
S	-6.863	-1.596	-0.990
C	-1.870	1.636	0.721
H	-1.887	-0.465	-1.217
H	-4.148	-1.585	-1.674
H	-7.088	0.854	1.333
H	-9.358	-0.267	0.877
H	-9.058	-2.125	-0.918
H	-0.898	1.384	0.240
H	-2.073	2.712	0.514
H	-1.739	1.505	1.820