%chk=C:\Users\William\Documents\chem3DFile\e-donor\D1.chk
# hf/3-21g 

Title Card Required
<name>triphenylamine<\name>
<l>-7.356,4.728,-0.757<\l>

0 1
N	-5.394	-0.000	0.000
C	-5.886	1.185	-0.190
C	-6.184	-0.996	0.264
C	-4.113	-0.190	-0.074
C	-5.798	-2.085	0.973
C	-6.603	-3.121	1.256
C	-7.872	-3.125	0.829
C	-8.303	-2.074	0.122
C	-7.476	-1.050	-0.142
C	-3.554	-1.375	-0.421
C	-2.230	-1.585	-0.505
C	-1.372	-0.595	-0.233
C	-1.872	0.595	0.117
C	-3.201	0.777	0.187
C	-5.285	2.127	-0.957
C	-5.783	3.356	-1.165
C	-6.938	3.721	-0.596
C	-7.571	2.829	0.175
C	-7.052	1.605	0.360
H	-4.799	-2.154	1.437
H	-6.232	-3.966	1.860
H	-8.542	-3.971	1.053
H	-9.338	-2.066	-0.260
H	-7.915	-0.275	-0.793
H	-4.166	-2.237	-0.738
H	-1.841	-2.569	-0.818
H	-0.283	-0.756	-0.296
H	-1.183	1.420	0.368
H	-3.498	1.774	0.556
H	-4.369	1.910	-1.534
H	-5.255	4.067	-1.823
H	-7.356	4.728	-0.757
H	-8.514	3.116	0.673
H	-7.619	0.980	1.072